/*--------------------------------*- C++ -*----------------------------------*\
  =========                 |
  \\      /  F ield         | OpenFOAM: The Open Source CFD Toolbox
   \\    /   O peration     | Website:  https://openfoam.org
    \\  /    A nd           | Version:  7
     \\/     M anipulation  |
\*---------------------------------------------------------------------------*/
FoamFile
{
    version     2.0;
    format      ascii;
    class       polyBoundaryMesh;
    location    "constant/polyMesh";
    object      boundary;
}
// * * * * * * * * * * * * * * * * * * * * * * * * * * * * * * * * * * * * * //

11
(
    inlet
    {
        type            patch;
        nFaces          0;
        startFace       6281;
    }
    outlet
    {
        type            patch;
        nFaces          0;
        startFace       6281;
    }
    triangle
    {
        type            wall;
        inGroups        List<word> 1(wall);
        nFaces          0;
        startFace       6281;
    }
    top
    {
        type            symmetryPlane;
        inGroups        List<word> 1(symmetryPlane);
        nFaces          22;
        startFace       6281;
    }
    bottom
    {
        type            symmetryPlane;
        inGroups        List<word> 1(symmetryPlane);
        nFaces          0;
        startFace       6303;
    }
    defaultFaces
    {
        type            empty;
        inGroups        List<word> 1(empty);
        nFaces          6450;
        startFace       6303;
    }
    procBoundary29to20
    {
        type            processor;
        inGroups        List<word> 1(processor);
        nFaces          25;
        startFace       12753;
        matchTolerance  0.0001;
        transform       unknown;
        myProcNo        29;
        neighbProcNo    20;
    }
    procBoundary29to21
    {
        type            processor;
        inGroups        List<word> 1(processor);
        nFaces          24;
        startFace       12778;
        matchTolerance  0.0001;
        transform       unknown;
        myProcNo        29;
        neighbProcNo    21;
    }
    procBoundary29to22
    {
        type            processor;
        inGroups        List<word> 1(processor);
        nFaces          1;
        startFace       12802;
        matchTolerance  0.0001;
        transform       unknown;
        myProcNo        29;
        neighbProcNo    22;
    }
    procBoundary29to28
    {
        type            processor;
        inGroups        List<word> 1(processor);
        nFaces          120;
        startFace       12803;
        matchTolerance  0.0001;
        transform       unknown;
        myProcNo        29;
        neighbProcNo    28;
    }
    procBoundary29to30
    {
        type            processor;
        inGroups        List<word> 1(processor);
        nFaces          146;
        startFace       12923;
        matchTolerance  0.0001;
        transform       unknown;
        myProcNo        29;
        neighbProcNo    30;
    }
)

// ************************************************************************* //
