


FoamFile
{
    version  2.0;
    format   ascii;
    class    dictionary;
    object   blockMeshDict;
}

convertToMeters 1.0;

vertices
(
(0.25 0.0 -0.005) // 0
(0.25 0.2886751345948129 -0.005) // 1
(-0.25 0.2886751345948129 -0.005) // 2
(-0.25 0.0 -0.005) // 3
(-0.25 -0.2886751345948129 -0.005) // 4
(0.25 -0.2886751345948129 -0.005) // 5
(1.25 -0.2886751345948129 -0.005) // 6
(1.25 0.0 -0.005) // 7
(1.25 0.2886751345948129 -0.005) // 8
(1.25 1.2886751345948129 -0.005) // 9
(0.25 1.2886751345948129 -0.005) // 10
(-0.25 1.2886751345948129 -0.005) // 11
(-1.25 1.2886751345948129 -0.005) // 12
(-1.25 0.2886751345948129 -0.005) // 13
(-1.25 0.0 -0.005) // 14
(-1.25 -0.2886751345948129 -0.005) // 15
(-1.25 -1.2886751345948129 -0.005) // 16
(-0.25 -1.2886751345948129 -0.005) // 17
(0.25 -1.2886751345948129 -0.005) // 18
(1.25 -1.2886751345948129 -0.005) // 19
(0.25 0.0 0.005) // 20
(0.25 0.2886751345948129 0.005) // 21
(-0.25 0.2886751345948129 0.005) // 22
(-0.25 0.0 0.005) // 23
(-0.25 -0.2886751345948129 0.005) // 24
(0.25 -0.2886751345948129 0.005) // 25
(1.25 -0.2886751345948129 0.005) // 26
(1.25 0.0 0.005) // 27
(1.25 0.2886751345948129 0.005) // 28
(1.25 1.2886751345948129 0.005) // 29
(0.25 1.2886751345948129 0.005) // 30
(-0.25 1.2886751345948129 0.005) // 31
(-1.25 1.2886751345948129 0.005) // 32
(-1.25 0.2886751345948129 0.005) // 33
(-1.25 0.0 0.005) // 34
(-1.25 -0.2886751345948129 0.005) // 35
(-1.25 -1.2886751345948129 0.005) // 36
(-0.25 -1.2886751345948129 0.005) // 37
(0.25 -1.2886751345948129 0.005) // 38
(1.25 -1.2886751345948129 0.005) // 39

);

blocks
(
   // block 0
   hex (5 6 8 1 25 26 28 21) (10 20 1) simpleGrading ( 2.00000e+00  1.00000e+00 1.0)

   // block 1
   hex (1 8 9 10 21 28 29 30) (10 20 1) simpleGrading ( 2.00000e+00  1.00000e+00 1.0)

   // block 2
   hex (3 1 10 11 23 21 30 31)  (10 20 1) simpleGrading ( 2.00000e+00  1.00000e+00 1.0)

   // block 3
   hex (13 2 11 12 33 22 31 32) (10 20 1) simpleGrading ( 2.00000e+00  1.00000e+00 1.0)

   // block 4
   hex (15 4 2 13 35 24 22 33) (10 20 1) simpleGrading ( 2.00000e+00  1.00000e+00 1.0)

   // block 5
   hex (16 17 4 15 36 37 24 35) (10 20 1) simpleGrading ( 2.00000e+00  1.00000e+00 1.0)

   // block 6
   hex (17 18 5 3 37 38 25 23) (10 20 1) simpleGrading ( 2.00000e+00  1.00000e+00 1.0)

   // block 7
   hex (18 19 6 5 38 39 26 25) (10 20 1) simpleGrading ( 2.00000e+00  1.00000e+00 1.0)





);
edges
(
);



boundary
(

  inlet
  {
      type patch;
      faces
      (
        (12 32 33 13)
        (13 33 35 15)
        (15 35 36 16)
      );
  }

  outlet
  {
      type patch;
      faces
      (
         (9 29 28 8)
         (8 28 26 6)
         (6 26 39 19)
      );
  }

  triangle
  {
      type wall;
      faces
      (
         (5 25 21 1)
         (1 21 3 23)
         (3 23 25 5)

      );
  }

  top
  {
      type symmetryPlane;
      faces
      (
         (12 32 31 11)
         (11 31 30 10)
         (10 30 29 9)

      );
  }

  bottom
  {
      type symmetryPlane;
      faces
      (
         (16 36 37 17)
         (17 37 38 18)
         (18 38 39 19)
      );
  }

);
