/*--------------------------------*- C++ -*----------------------------------*\
  =========                 |
  \\      /  F ield         | OpenFOAM: The Open Source CFD Toolbox
   \\    /   O peration     | Website:  https://openfoam.org
    \\  /    A nd           | Version:  7
     \\/     M anipulation  |
\*---------------------------------------------------------------------------*/
FoamFile
{
    version     2.0;
    format      ascii;
    class       polyBoundaryMesh;
    location    "constant/polyMesh";
    object      boundary;
}
// * * * * * * * * * * * * * * * * * * * * * * * * * * * * * * * * * * * * * //

12
(
    inlet
    {
        type            patch;
        nFaces          0;
        startFace       6303;
    }
    outlet
    {
        type            patch;
        nFaces          0;
        startFace       6303;
    }
    triangle
    {
        type            wall;
        inGroups        List<word> 1(wall);
        nFaces          0;
        startFace       6303;
    }
    top
    {
        type            symmetryPlane;
        inGroups        List<word> 1(symmetryPlane);
        nFaces          0;
        startFace       6303;
    }
    bottom
    {
        type            symmetryPlane;
        inGroups        List<word> 1(symmetryPlane);
        nFaces          0;
        startFace       6303;
    }
    defaultFaces
    {
        type            empty;
        inGroups        List<word> 1(empty);
        nFaces          6450;
        startFace       6303;
    }
    procBoundary18to10
    {
        type            processor;
        inGroups        List<word> 1(processor);
        nFaces          28;
        startFace       12753;
        matchTolerance  0.0001;
        transform       unknown;
        myProcNo        18;
        neighbProcNo    10;
    }
    procBoundary18to11
    {
        type            processor;
        inGroups        List<word> 1(processor);
        nFaces          4;
        startFace       12781;
        matchTolerance  0.0001;
        transform       unknown;
        myProcNo        18;
        neighbProcNo    11;
    }
    procBoundary18to17
    {
        type            processor;
        inGroups        List<word> 1(processor);
        nFaces          118;
        startFace       12785;
        matchTolerance  0.0001;
        transform       unknown;
        myProcNo        18;
        neighbProcNo    17;
    }
    procBoundary18to19
    {
        type            processor;
        inGroups        List<word> 1(processor);
        nFaces          115;
        startFace       12903;
        matchTolerance  0.0001;
        transform       unknown;
        myProcNo        18;
        neighbProcNo    19;
    }
    procBoundary18to25
    {
        type            processor;
        inGroups        List<word> 1(processor);
        nFaces          1;
        startFace       13018;
        matchTolerance  0.0001;
        transform       unknown;
        myProcNo        18;
        neighbProcNo    25;
    }
    procBoundary18to26
    {
        type            processor;
        inGroups        List<word> 1(processor);
        nFaces          28;
        startFace       13019;
        matchTolerance  0.0001;
        transform       unknown;
        myProcNo        18;
        neighbProcNo    26;
    }
)

// ************************************************************************* //
