/*--------------------------------*- C++ -*----------------------------------*\
  =========                 |
  \\      /  F ield         | OpenFOAM: The Open Source CFD Toolbox
   \\    /   O peration     | Website:  https://openfoam.org
    \\  /    A nd           | Version:  7
     \\/     M anipulation  |
\*---------------------------------------------------------------------------*/
FoamFile
{
    version     2.0;
    format      ascii;
    class       polyBoundaryMesh;
    location    "constant/polyMesh";
    object      boundary;
}
// * * * * * * * * * * * * * * * * * * * * * * * * * * * * * * * * * * * * * //

11
(
    inlet
    {
        type            patch;
        nFaces          0;
        startFace       6302;
    }
    outlet
    {
        type            patch;
        nFaces          0;
        startFace       6302;
    }
    triangle
    {
        type            wall;
        inGroups        List<word> 1(wall);
        nFaces          16;
        startFace       6302;
    }
    top
    {
        type            symmetryPlane;
        inGroups        List<word> 1(symmetryPlane);
        nFaces          0;
        startFace       6318;
    }
    bottom
    {
        type            symmetryPlane;
        inGroups        List<word> 1(symmetryPlane);
        nFaces          0;
        startFace       6318;
    }
    defaultFaces
    {
        type            empty;
        inGroups        List<word> 1(empty);
        nFaces          6450;
        startFace       6318;
    }
    procBoundary19to11
    {
        type            processor;
        inGroups        List<word> 1(processor);
        nFaces          16;
        startFace       12768;
        matchTolerance  0.0001;
        transform       unknown;
        myProcNo        19;
        neighbProcNo    11;
    }
    procBoundary19to18
    {
        type            processor;
        inGroups        List<word> 1(processor);
        nFaces          115;
        startFace       12784;
        matchTolerance  0.0001;
        transform       unknown;
        myProcNo        19;
        neighbProcNo    18;
    }
    procBoundary19to20
    {
        type            processor;
        inGroups        List<word> 1(processor);
        nFaces          120;
        startFace       12899;
        matchTolerance  0.0001;
        transform       unknown;
        myProcNo        19;
        neighbProcNo    20;
    }
    procBoundary19to26
    {
        type            processor;
        inGroups        List<word> 1(processor);
        nFaces          1;
        startFace       13019;
        matchTolerance  0.0001;
        transform       unknown;
        myProcNo        19;
        neighbProcNo    26;
    }
    procBoundary19to27
    {
        type            processor;
        inGroups        List<word> 1(processor);
        nFaces          28;
        startFace       13020;
        matchTolerance  0.0001;
        transform       unknown;
        myProcNo        19;
        neighbProcNo    27;
    }
)

// ************************************************************************* //
