/*--------------------------------*- C++ -*----------------------------------*\
  =========                 |
  \\      /  F ield         | OpenFOAM: The Open Source CFD Toolbox
   \\    /   O peration     | Website:  https://openfoam.org
    \\  /    A nd           | Version:  7
     \\/     M anipulation  |
\*---------------------------------------------------------------------------*/
FoamFile
{
    version     2.0;
    format      ascii;
    class       polyBoundaryMesh;
    location    "constant/polyMesh";
    object      boundary;
}
// * * * * * * * * * * * * * * * * * * * * * * * * * * * * * * * * * * * * * //

9
(
    inlet
    {
        type            patch;
        nFaces          0;
        startFace       6281;
    }
    outlet
    {
        type            patch;
        nFaces          0;
        startFace       6281;
    }
    triangle
    {
        type            wall;
        inGroups        List<word> 1(wall);
        nFaces          0;
        startFace       6281;
    }
    top
    {
        type            symmetryPlane;
        inGroups        List<word> 1(symmetryPlane);
        nFaces          22;
        startFace       6281;
    }
    bottom
    {
        type            symmetryPlane;
        inGroups        List<word> 1(symmetryPlane);
        nFaces          0;
        startFace       6303;
    }
    defaultFaces
    {
        type            empty;
        inGroups        List<word> 1(empty);
        nFaces          6450;
        startFace       6303;
    }
    procBoundary30to22
    {
        type            processor;
        inGroups        List<word> 1(processor);
        nFaces          23;
        startFace       12753;
        matchTolerance  0.0001;
        transform       unknown;
        myProcNo        30;
        neighbProcNo    22;
    }
    procBoundary30to29
    {
        type            processor;
        inGroups        List<word> 1(processor);
        nFaces          146;
        startFace       12776;
        matchTolerance  0.0001;
        transform       unknown;
        myProcNo        30;
        neighbProcNo    29;
    }
    procBoundary30to31
    {
        type            processor;
        inGroups        List<word> 1(processor);
        nFaces          147;
        startFace       12922;
        matchTolerance  0.0001;
        transform       unknown;
        myProcNo        30;
        neighbProcNo    31;
    }
)

// ************************************************************************* //
