/*--------------------------------*- C++ -*----------------------------------*\
  =========                 |
  \\      /  F ield         | OpenFOAM: The Open Source CFD Toolbox
   \\    /   O peration     | Website:  https://openfoam.org
    \\  /    A nd           | Version:  7
     \\/     M anipulation  |
\*---------------------------------------------------------------------------*/
FoamFile
{
    version     2.0;
    format      ascii;
    class       polyBoundaryMesh;
    location    "constant/polyMesh";
    object      boundary;
}
// * * * * * * * * * * * * * * * * * * * * * * * * * * * * * * * * * * * * * //

9
(
    inlet
    {
        type            patch;
        nFaces          0;
        startFace       6275;
    }
    outlet
    {
        type            patch;
        nFaces          154;
        startFace       6275;
    }
    triangle
    {
        type            wall;
        inGroups        List<word> 1(wall);
        nFaces          0;
        startFace       6429;
    }
    top
    {
        type            symmetryPlane;
        inGroups        List<word> 1(symmetryPlane);
        nFaces          21;
        startFace       6429;
    }
    bottom
    {
        type            symmetryPlane;
        inGroups        List<word> 1(symmetryPlane);
        nFaces          0;
        startFace       6450;
    }
    defaultFaces
    {
        type            empty;
        inGroups        List<word> 1(empty);
        nFaces          6450;
        startFace       6450;
    }
    procBoundary31to22
    {
        type            processor;
        inGroups        List<word> 1(processor);
        nFaces          6;
        startFace       12900;
        matchTolerance  0.0001;
        transform       unknown;
        myProcNo        31;
        neighbProcNo    22;
    }
    procBoundary31to23
    {
        type            processor;
        inGroups        List<word> 1(processor);
        nFaces          22;
        startFace       12906;
        matchTolerance  0.0001;
        transform       unknown;
        myProcNo        31;
        neighbProcNo    23;
    }
    procBoundary31to30
    {
        type            processor;
        inGroups        List<word> 1(processor);
        nFaces          147;
        startFace       12928;
        matchTolerance  0.0001;
        transform       unknown;
        myProcNo        31;
        neighbProcNo    30;
    }
)

// ************************************************************************* //
