/*--------------------------------*- C++ -*----------------------------------*\
  =========                 |
  \\      /  F ield         | OpenFOAM: The Open Source CFD Toolbox
   \\    /   O peration     | Website:  https://openfoam.org
    \\  /    A nd           | Version:  7
     \\/     M anipulation  |
\*---------------------------------------------------------------------------*/
FoamFile
{
    version     2.0;
    format      ascii;
    class       polyBoundaryMesh;
    location    "constant/polyMesh";
    object      boundary;
}
// * * * * * * * * * * * * * * * * * * * * * * * * * * * * * * * * * * * * * //

9
(
    inlet
    {
        type            patch;
        nFaces          119;
        startFace       6303;
    }
    outlet
    {
        type            patch;
        nFaces          0;
        startFace       6422;
    }
    triangle
    {
        type            wall;
        inGroups        List<word> 1(wall);
        nFaces          0;
        startFace       6422;
    }
    top
    {
        type            symmetryPlane;
        inGroups        List<word> 1(symmetryPlane);
        nFaces          27;
        startFace       6422;
    }
    bottom
    {
        type            symmetryPlane;
        inGroups        List<word> 1(symmetryPlane);
        nFaces          0;
        startFace       6449;
    }
    defaultFaces
    {
        type            empty;
        inGroups        List<word> 1(empty);
        nFaces          6450;
        startFace       6449;
    }
    procBoundary24to16
    {
        type            processor;
        inGroups        List<word> 1(processor);
        nFaces          28;
        startFace       12899;
        matchTolerance  0.0001;
        transform       unknown;
        myProcNo        24;
        neighbProcNo    16;
    }
    procBoundary24to17
    {
        type            processor;
        inGroups        List<word> 1(processor);
        nFaces          1;
        startFace       12927;
        matchTolerance  0.0001;
        transform       unknown;
        myProcNo        24;
        neighbProcNo    17;
    }
    procBoundary24to25
    {
        type            processor;
        inGroups        List<word> 1(processor);
        nFaces          119;
        startFace       12928;
        matchTolerance  0.0001;
        transform       unknown;
        myProcNo        24;
        neighbProcNo    25;
    }
)

// ************************************************************************* //
