/*--------------------------------*- C++ -*----------------------------------*\
  =========                 |
  \\      /  F ield         | OpenFOAM: The Open Source CFD Toolbox
   \\    /   O peration     | Website:  https://openfoam.org
    \\  /    A nd           | Version:  7
     \\/     M anipulation  |
\*---------------------------------------------------------------------------*/
FoamFile
{
    version     2.0;
    format      ascii;
    class       polyBoundaryMesh;
    location    "constant/polyMesh";
    object      boundary;
}
// * * * * * * * * * * * * * * * * * * * * * * * * * * * * * * * * * * * * * //

13
(
    inlet
    {
        type            patch;
        nFaces          0;
        startFace       6299;
    }
    outlet
    {
        type            patch;
        nFaces          0;
        startFace       6299;
    }
    triangle
    {
        type            wall;
        inGroups        List<word> 1(wall);
        nFaces          2;
        startFace       6299;
    }
    top
    {
        type            symmetryPlane;
        inGroups        List<word> 1(symmetryPlane);
        nFaces          0;
        startFace       6301;
    }
    bottom
    {
        type            symmetryPlane;
        inGroups        List<word> 1(symmetryPlane);
        nFaces          0;
        startFace       6301;
    }
    defaultFaces
    {
        type            empty;
        inGroups        List<word> 1(empty);
        nFaces          6450;
        startFace       6301;
    }
    procBoundary10to1
    {
        type            processor;
        inGroups        List<word> 1(processor);
        nFaces          1;
        startFace       12751;
        matchTolerance  0.0001;
        transform       unknown;
        myProcNo        10;
        neighbProcNo    1;
    }
    procBoundary10to2
    {
        type            processor;
        inGroups        List<word> 1(processor);
        nFaces          27;
        startFace       12752;
        matchTolerance  0.0001;
        transform       unknown;
        myProcNo        10;
        neighbProcNo    2;
    }
    procBoundary10to3
    {
        type            processor;
        inGroups        List<word> 1(processor);
        nFaces          1;
        startFace       12779;
        matchTolerance  0.0001;
        transform       unknown;
        myProcNo        10;
        neighbProcNo    3;
    }
    procBoundary10to9
    {
        type            processor;
        inGroups        List<word> 1(processor);
        nFaces          120;
        startFace       12780;
        matchTolerance  0.0001;
        transform       unknown;
        myProcNo        10;
        neighbProcNo    9;
    }
    procBoundary10to11
    {
        type            processor;
        inGroups        List<word> 1(processor);
        nFaces          122;
        startFace       12900;
        matchTolerance  0.0001;
        transform       unknown;
        myProcNo        10;
        neighbProcNo    11;
    }
    procBoundary10to17
    {
        type            processor;
        inGroups        List<word> 1(processor);
        nFaces          1;
        startFace       13022;
        matchTolerance  0.0001;
        transform       unknown;
        myProcNo        10;
        neighbProcNo    17;
    }
    procBoundary10to18
    {
        type            processor;
        inGroups        List<word> 1(processor);
        nFaces          28;
        startFace       13023;
        matchTolerance  0.0001;
        transform       unknown;
        myProcNo        10;
        neighbProcNo    18;
    }
)

// ************************************************************************* //
