/*--------------------------------*- C++ -*----------------------------------*\
  =========                 |
  \\      /  F ield         | OpenFOAM: The Open Source CFD Toolbox
   \\    /   O peration     | Website:  https://openfoam.org
    \\  /    A nd           | Version:  7
     \\/     M anipulation  |
\*---------------------------------------------------------------------------*/
FoamFile
{
    version     2.0;
    format      ascii;
    class       polyBoundaryMesh;
    location    "constant/polyMesh";
    object      boundary;
}
// * * * * * * * * * * * * * * * * * * * * * * * * * * * * * * * * * * * * * //

10
(
    inlet
    {
        type            patch;
        nFaces          0;
        startFace       6280;
    }
    outlet
    {
        type            patch;
        nFaces          147;
        startFace       6280;
    }
    triangle
    {
        type            wall;
        inGroups        List<word> 1(wall);
        nFaces          0;
        startFace       6427;
    }
    top
    {
        type            symmetryPlane;
        inGroups        List<word> 1(symmetryPlane);
        nFaces          0;
        startFace       6427;
    }
    bottom
    {
        type            symmetryPlane;
        inGroups        List<word> 1(symmetryPlane);
        nFaces          0;
        startFace       6427;
    }
    defaultFaces
    {
        type            empty;
        inGroups        List<word> 1(empty);
        nFaces          6450;
        startFace       6427;
    }
    procBoundary15to6
    {
        type            processor;
        inGroups        List<word> 1(processor);
        nFaces          6;
        startFace       12877;
        matchTolerance  0.0001;
        transform       unknown;
        myProcNo        15;
        neighbProcNo    6;
    }
    procBoundary15to7
    {
        type            processor;
        inGroups        List<word> 1(processor);
        nFaces          23;
        startFace       12883;
        matchTolerance  0.0001;
        transform       unknown;
        myProcNo        15;
        neighbProcNo    7;
    }
    procBoundary15to14
    {
        type            processor;
        inGroups        List<word> 1(processor);
        nFaces          141;
        startFace       12906;
        matchTolerance  0.0001;
        transform       unknown;
        myProcNo        15;
        neighbProcNo    14;
    }
    procBoundary15to23
    {
        type            processor;
        inGroups        List<word> 1(processor);
        nFaces          23;
        startFace       13047;
        matchTolerance  0.0001;
        transform       unknown;
        myProcNo        15;
        neighbProcNo    23;
    }
)

// ************************************************************************* //
