/*--------------------------------*- C++ -*----------------------------------*\
  =========                 |
  \\      /  F ield         | OpenFOAM: The Open Source CFD Toolbox
   \\    /   O peration     | Website:  https://openfoam.org
    \\  /    A nd           | Version:  7
     \\/     M anipulation  |
\*---------------------------------------------------------------------------*/
FoamFile
{
    version     2.0;
    format      ascii;
    class       polyBoundaryMesh;
    location    "constant/polyMesh";
    object      boundary;
}
// * * * * * * * * * * * * * * * * * * * * * * * * * * * * * * * * * * * * * //

10
(
    inlet
    {
        type            patch;
        nFaces          0;
        startFace       6303;
    }
    outlet
    {
        type            patch;
        nFaces          0;
        startFace       6303;
    }
    triangle
    {
        type            wall;
        inGroups        List<word> 1(wall);
        nFaces          0;
        startFace       6303;
    }
    top
    {
        type            symmetryPlane;
        inGroups        List<word> 1(symmetryPlane);
        nFaces          0;
        startFace       6303;
    }
    bottom
    {
        type            symmetryPlane;
        inGroups        List<word> 1(symmetryPlane);
        nFaces          27;
        startFace       6303;
    }
    defaultFaces
    {
        type            empty;
        inGroups        List<word> 1(empty);
        nFaces          6450;
        startFace       6330;
    }
    procBoundary3to2
    {
        type            processor;
        inGroups        List<word> 1(processor);
        nFaces          119;
        startFace       12780;
        matchTolerance  0.0001;
        transform       unknown;
        myProcNo        3;
        neighbProcNo    2;
    }
    procBoundary3to4
    {
        type            processor;
        inGroups        List<word> 1(processor);
        nFaces          119;
        startFace       12899;
        matchTolerance  0.0001;
        transform       unknown;
        myProcNo        3;
        neighbProcNo    4;
    }
    procBoundary3to10
    {
        type            processor;
        inGroups        List<word> 1(processor);
        nFaces          1;
        startFace       13018;
        matchTolerance  0.0001;
        transform       unknown;
        myProcNo        3;
        neighbProcNo    10;
    }
    procBoundary3to11
    {
        type            processor;
        inGroups        List<word> 1(processor);
        nFaces          28;
        startFace       13019;
        matchTolerance  0.0001;
        transform       unknown;
        myProcNo        3;
        neighbProcNo    11;
    }
)

// ************************************************************************* //
