/*--------------------------------*- C++ -*----------------------------------*\
  =========                 |
  \\      /  F ield         | OpenFOAM: The Open Source CFD Toolbox
   \\    /   O peration     | Website:  https://openfoam.org
    \\  /    A nd           | Version:  7
     \\/     M anipulation  |
\*---------------------------------------------------------------------------*/
FoamFile
{
    version     2.0;
    format      ascii;
    class       polyBoundaryMesh;
    location    "constant/polyMesh";
    object      boundary;
}
// * * * * * * * * * * * * * * * * * * * * * * * * * * * * * * * * * * * * * //

11
(
    inlet
    {
        type            patch;
        nFaces          0;
        startFace       6266;
    }
    outlet
    {
        type            patch;
        nFaces          0;
        startFace       6266;
    }
    triangle
    {
        type            wall;
        inGroups        List<word> 1(wall);
        nFaces          71;
        startFace       6266;
    }
    top
    {
        type            symmetryPlane;
        inGroups        List<word> 1(symmetryPlane);
        nFaces          0;
        startFace       6337;
    }
    bottom
    {
        type            symmetryPlane;
        inGroups        List<word> 1(symmetryPlane);
        nFaces          0;
        startFace       6337;
    }
    defaultFaces
    {
        type            empty;
        inGroups        List<word> 1(empty);
        nFaces          6450;
        startFace       6337;
    }
    procBoundary21to13
    {
        type            processor;
        inGroups        List<word> 1(processor);
        nFaces          18;
        startFace       12787;
        matchTolerance  0.0001;
        transform       unknown;
        myProcNo        21;
        neighbProcNo    13;
    }
    procBoundary21to14
    {
        type            processor;
        inGroups        List<word> 1(processor);
        nFaces          13;
        startFace       12805;
        matchTolerance  0.0001;
        transform       unknown;
        myProcNo        21;
        neighbProcNo    14;
    }
    procBoundary21to20
    {
        type            processor;
        inGroups        List<word> 1(processor);
        nFaces          96;
        startFace       12818;
        matchTolerance  0.0001;
        transform       unknown;
        myProcNo        21;
        neighbProcNo    20;
    }
    procBoundary21to22
    {
        type            processor;
        inGroups        List<word> 1(processor);
        nFaces          146;
        startFace       12914;
        matchTolerance  0.0001;
        transform       unknown;
        myProcNo        21;
        neighbProcNo    22;
    }
    procBoundary21to29
    {
        type            processor;
        inGroups        List<word> 1(processor);
        nFaces          24;
        startFace       13060;
        matchTolerance  0.0001;
        transform       unknown;
        myProcNo        21;
        neighbProcNo    29;
    }
)

// ************************************************************************* //
